There are two scripts,

1. run-tests.sh
2. extract-stats.sh

Note: The third script - "parse1.sh" will be invoked internally by run-tests.sh

=================================================================================

USAGE and PURPOSE

1. run-tests.sh

This script will run the sim-outorder for different parameters as specified in the input file.

USAGE:
run-tests.sh <input_file> <executable> <Output Stats File>

Input file contains the format:
<config> <v1> <v2> <v3> ... <vn>

2. extract-stats.sh

This script would extract the stats for a given config from the stats file that was generated by run-tests.sh.

USAGE:
extract-stats.sh <config_name> <Input Stats File>


